data_TaptBtt
_audit_creation_date              2023-03-07
_audit_creation_method            'Materials Studio'
_symmetry_space_group_name_H-M    'P-6'
_symmetry_Int_Tables_number       174
_symmetry_cell_setting            hexagonal
loop_
_symmetry_equiv_pos_as_xyz
  x,y,z
  -y,x-y,z
  -x+y,-x,z
  x,y,-z
  -y,x-y,-z
  -x+y,-x,-z
_cell_length_a                    21.7550
_cell_length_b                    21.7550
_cell_length_c                    3.4930
_cell_angle_alpha                 90.0000
_cell_angle_beta                  90.0000
_cell_angle_gamma                 120.0000
loop_
_atom_site_label
_atom_site_type_symbol
_atom_site_fract_x
_atom_site_fract_y
_atom_site_fract_z
_atom_site_U_iso_or_equiv
_atom_site_adp_type
_atom_site_occupancy
C1     C     0.04763   0.97473   0.50000   0.00000  Uiso   1.00
C2     C     0.07247   0.04697   0.50000   0.00000  Uiso   1.00
S3     S     0.11231   0.95216   0.50000   0.00000  Uiso   1.00
C4     C     0.17305   0.04133   0.50000   0.00000  Uiso   1.00
C5     C     0.14455   0.08564   0.50000   0.00000  Uiso   1.00
C6     C     0.24930   0.06830   0.50000   0.00000  Uiso   1.00
C7     C     0.59481   0.29474   0.50000   0.00000  Uiso   1.00
N8     N     0.63357   0.26185   0.50000   0.00000  Uiso   1.00
C9     C     0.51668   0.25281   0.50000   0.00000  Uiso   1.00
C10    C     0.47641   0.28700   0.50000   0.00000  Uiso   1.00
C11    C     0.40260   0.24729   0.50000   0.00000  Uiso   1.00
C12    C     0.36780   0.17332   0.50000   0.00000  Uiso   1.00
C13    C     0.40765   0.13865   0.50000   0.00000  Uiso   1.00
C14    C     0.48160   0.17824   0.50000   0.00000  Uiso   1.00
N15    N     0.29209   0.13638   0.50000   0.00000  Uiso   1.00
H16    H     0.17512   0.14305   0.50000   0.00000  Uiso   1.00
H17    H     0.26783   0.03063   0.50000   0.00000  Uiso   1.00
H18    H     0.50203   0.34438   0.50000   0.00000  Uiso   1.00
H19    H     0.37178   0.27386   0.50000   0.00000  Uiso   1.00
H20    H     0.38263   0.08157   0.50000   0.00000  Uiso   1.00
H21    H     0.51146   0.15062   0.50000   0.00000  Uiso   1.00
loop_
_geom_bond_atom_site_label_1
_geom_bond_atom_site_label_2
_geom_bond_distance
_geom_bond_site_symmetry_2
_ccdc_geom_bond_type
C1     S3      1.706   .     S
C1     C2      1.397   3_565 S
C1     C2      1.383   1_565 S
C2     C5      1.359   .     S
C2     C1      1.397   2_665 S
C2     C1      1.383   1_545 S
S3     C4      1.716   1_565 S
C4     C5      1.383   .     D
C4     C6      1.457   .     S
C4     S3      1.716   1_545 S
C5     H16     1.082   .     S
C6     N15     1.297   .     D
C6     H17     1.079   .     S
C7     N8      1.351   .     D
C7     C9      1.473   .     S
C7     N8      1.352   3_665 S
N8     C7      1.352   2_655 S
C9     C10     1.404   .     D
C9     C14     1.406   .     S
C10    C11     1.392   .     S
C10    H18     1.083   .     S
C11    C12     1.394   .     D
C11    H19     1.082   .     S
C12    C13     1.405   .     S
C12    N15     1.427   .     S
C13    C14     1.394   .     D
C13    H20     1.078   .     S
C14    H21     1.083   .     S
